428

Si 16.293000 0.000000 0.000000
Si 17.650750 1.357750 1.357750
Si 19.008500 2.715500 0.000000
Si 19.008500 0.000000 2.715500
Si 10.862000 0.000000 0.000000
Si 12.219750 1.357750 1.357750
Si 13.577500 2.715500 0.000000
Si 14.935250 4.073250 1.357750
Si 16.293000 5.431000 0.000000
Si 17.650750 6.788750 1.357750
Si 19.008500 8.146500 0.000000
Si 13.577500 0.000000 2.715500
Si 14.935250 1.357750 4.073250
Si 16.293000 2.715500 2.715500
Si 17.650750 4.073250 4.073250
Si 19.008500 5.431000 2.715500
Si 16.293000 0.000000 5.431000
Si 17.650750 1.357750 6.788750
Si 19.008500 2.715500 5.431000
Si 19.008500 0.000000 8.146500
Si 5.431000 0.000000 0.000000
Si 6.788750 1.357750 1.357750
Si 8.146500 2.715500 0.000000
Si 9.504250 4.073250 1.357750
Si 10.862000 5.431000 0.000000
Si 12.219750 6.788750 1.357750
Si 13.577500 8.146500 0.000000
Si 14.935250 9.504250 1.357750
Si 16.293000 10.862000 0.000000
Si 17.650750 12.219750 1.357750
Si 19.008500 13.577500 0.000000
Si 8.146500 0.000000 2.715500
Si 9.504250 1.357750 4.073250
Si 10.862000 2.715500 2.715500
Si 12.219750 4.073250 4.073250
Si 13.577500 5.431000 2.715500
Si 14.935250 6.788750 4.073250
Si 16.293000 8.146500 2.715500
Si 17.650750 9.504250 4.073250
Si 19.008500 10.862000 2.715500
Si 10.862000 0.000000 5.431000
Si 12.219750 1.357750 6.788750
Si 13.577500 2.715500 5.431000
Si 14.935250 4.073250 6.788750
Si 16.293000 5.431000 5.431000
Si 17.650750 6.788750 6.788750
Si 19.008500 8.146500 5.431000
Si 13.577500 0.000000 8.146500
Si 14.935250 1.357750 9.504250
Si 16.293000 2.715500 8.146500
Si 17.650750 4.073250 9.504250
Si 19.008500 5.431000 8.146500
Si 16.293000 0.000000 10.862000
Si 17.650750 1.357750 12.219750
Si 19.008500 2.715500 10.862000
Si 19.008500 0.000000 13.577500
Si 0.000000 0.000000 0.000000
Si 1.357750 1.357750 1.357750
Si 2.715500 2.715500 0.000000
Si 4.073250 4.073250 1.357750
Si 5.431000 5.431000 0.000000
Si 6.788750 6.788750 1.357750
Si 8.146500 8.146500 0.000000
Si 9.504250 9.504250 1.357750
Si 10.862000 10.862000 0.000000
Si 12.219750 12.219750 1.357750
Si 13.577500 13.577500 0.000000
Si 14.935250 14.935250 1.357750
Si 16.293000 16.293000 0.000000
Si 17.650750 17.650750 1.357750
Si 19.008500 19.008500 0.000000
Si 2.715500 0.000000 2.715500
Si 4.073250 1.357750 4.073250
Si 5.431000 2.715500 2.715500
Si 6.788750 4.073250 4.073250
Si 8.146500 5.431000 2.715500
Si 9.504250 6.788750 4.073250
Si 10.862000 8.146500 2.715500
Si 12.219750 9.504250 4.073250
Si 13.577500 10.862000 2.715500
Si 14.935250 12.219750 4.073250
Si 16.293000 13.577500 2.715500
Si 17.650750 14.935250 4.073250
Si 19.008500 16.293000 2.715500
Si 5.431000 0.000000 5.431000
Si 6.788750 1.357750 6.788750
Si 8.146500 2.715500 5.431000
Si 9.504250 4.073250 6.788750
Si 10.862000 5.431000 5.431000
Si 12.219750 6.788750 6.788750
Si 13.577500 8.146500 5.431000
Si 14.935250 9.504250 6.788750
Si 16.293000 10.862000 5.431000
Si 17.650750 12.219750 6.788750
Si 19.008500 13.577500 5.431000
Si 8.146500 0.000000 8.146500
Si 9.504250 1.357750 9.504250
Si 10.862000 2.715500 8.146500
Si 12.219750 4.073250 9.504250
Si 13.577500 5.431000 8.146500
Si 14.935250 6.788750 9.504250
Si 16.293000 8.146500 8.146500
Si 17.650750 9.504250 9.504250
Si 19.008500 10.862000 8.146500
Si 10.862000 0.000000 10.862000
Si 12.219750 1.357750 12.219750
Si 13.577500 2.715500 10.862000
Si 14.935250 4.073250 12.219750
Si 16.293000 5.431000 10.862000
Si 17.650750 6.788750 12.219750
Si 19.008500 8.146500 10.862000
Si 13.577500 0.000000 13.577500
Si 14.935250 1.357750 14.935250
Si 16.293000 2.715500 13.577500
Si 17.650750 4.073250 14.935250
Si 19.008500 5.431000 13.577500
Si 16.293000 0.000000 16.293000
Si 17.650750 1.357750 17.650750
Si 19.008500 2.715500 16.293000
Si 19.008500 0.000000 19.008500
Si 0.000000 5.431000 0.000000
Si 1.357750 6.788750 1.357750
Si 2.715500 8.146500 0.000000
Si 4.073250 9.504250 1.357750
Si 5.431000 10.862000 0.000000
Si 6.788750 12.219750 1.357750
Si 8.146500 13.577500 0.000000
Si 9.504250 14.935250 1.357750
Si 10.862000 16.293000 0.000000
Si 12.219750 17.650750 1.357750
Si 13.577500 19.008500 0.000000
Si 0.000000 2.715500 2.715500
Si 1.357750 4.073250 4.073250
Si 2.715500 5.431000 2.715500
Si 4.073250 6.788750 4.073250
Si 5.431000 8.146500 2.715500
Si 6.788750 9.504250 4.073250
Si 8.146500 10.862000 2.715500
Si 9.504250 12.219750 4.073250
Si 10.862000 13.577500 2.715500
Si 12.219750 14.935250 4.073250
Si 13.577500 16.293000 2.715500
Si 14.935250 17.650750 4.073250
Si 16.293000 19.008500 2.715500
Si 0.000000 0.000000 5.431000
Si 1.357750 1.357750 6.788750
Si 2.715500 2.715500 5.431000
Si 4.073250 4.073250 6.788750
Si 5.431000 5.431000 5.431000
Si 6.788750 6.788750 6.788750
Si 8.146500 8.146500 5.431000
Si 9.504250 9.504250 6.788750
Si 10.862000 10.862000 5.431000
Si 12.219750 12.219750 6.788750
Si 13.577500 13.577500 5.431000
Si 14.935250 14.935250 6.788750
Si 16.293000 16.293000 5.431000
Si 17.650750 17.650750 6.788750
Si 19.008500 19.008500 5.431000
Si 2.715500 0.000000 8.146500
Si 4.073250 1.357750 9.504250
Si 5.431000 2.715500 8.146500
Si 6.788750 4.073250 9.504250
Si 8.146500 5.431000 8.146500
Si 9.504250 6.788750 9.504250
Si 10.862000 8.146500 8.146500
Si 12.219750 9.504250 9.504250
Si 13.577500 10.862000 8.146500
Si 14.935250 12.219750 9.504250
Si 16.293000 13.577500 8.146500
Si 17.650750 14.935250 9.504250
Si 19.008500 16.293000 8.146500
Si 5.431000 0.000000 10.862000
Si 6.788750 1.357750 12.219750
Si 8.146500 2.715500 10.862000
Si 9.504250 4.073250 12.219750
Si 10.862000 5.431000 10.862000
Si 12.219750 6.788750 12.219750
Si 13.577500 8.146500 10.862000
Si 14.935250 9.504250 12.219750
Si 16.293000 10.862000 10.862000
Si 17.650750 12.219750 12.219750
Si 19.008500 13.577500 10.862000
Si 8.146500 0.000000 13.577500
Si 9.504250 1.357750 14.935250
Si 10.862000 2.715500 13.577500
Si 12.219750 4.073250 14.935250
Si 13.577500 5.431000 13.577500
Si 14.935250 6.788750 14.935250
Si 16.293000 8.146500 13.577500
Si 17.650750 9.504250 14.935250
Si 19.008500 10.862000 13.577500
Si 10.862000 0.000000 16.293000
Si 12.219750 1.357750 17.650750
Si 13.577500 2.715500 16.293000
Si 14.935250 4.073250 17.650750
Si 16.293000 5.431000 16.293000
Si 17.650750 6.788750 17.650750
Si 19.008500 8.146500 16.293000
Si 13.577500 0.000000 19.008500
Si 16.293000 2.715500 19.008500
Si 19.008500 5.431000 19.008500
Si 0.000000 10.862000 0.000000
Si 1.357750 12.219750 1.357750
Si 2.715500 13.577500 0.000000
Si 4.073250 14.935250 1.357750
Si 5.431000 16.293000 0.000000
Si 6.788750 17.650750 1.357750
Si 8.146500 19.008500 0.000000
Si 0.000000 8.146500 2.715500
Si 1.357750 9.504250 4.073250
Si 2.715500 10.862000 2.715500
Si 4.073250 12.219750 4.073250
Si 5.431000 13.577500 2.715500
Si 6.788750 14.935250 4.073250
Si 8.146500 16.293000 2.715500
Si 9.504250 17.650750 4.073250
Si 10.862000 19.008500 2.715500
Si 0.000000 5.431000 5.431000
Si 1.357750 6.788750 6.788750
Si 2.715500 8.146500 5.431000
Si 4.073250 9.504250 6.788750
Si 5.431000 10.862000 5.431000
Si 6.788750 12.219750 6.788750
Si 8.146500 13.577500 5.431000
Si 9.504250 14.935250 6.788750
Si 10.862000 16.293000 5.431000
Si 12.219750 17.650750 6.788750
Si 13.577500 19.008500 5.431000
Si 0.000000 2.715500 8.146500
Si 1.357750 4.073250 9.504250
Si 2.715500 5.431000 8.146500
Si 4.073250 6.788750 9.504250
Si 5.431000 8.146500 8.146500
Si 6.788750 9.504250 9.504250
Si 8.146500 10.862000 8.146500
Si 9.504250 12.219750 9.504250
Si 10.862000 13.577500 8.146500
Si 12.219750 14.935250 9.504250
Si 13.577500 16.293000 8.146500
Si 14.935250 17.650750 9.504250
Si 16.293000 19.008500 8.146500
Si 0.000000 0.000000 10.862000
Si 1.357750 1.357750 12.219750
Si 2.715500 2.715500 10.862000
Si 4.073250 4.073250 12.219750
Si 5.431000 5.431000 10.862000
Si 6.788750 6.788750 12.219750
Si 8.146500 8.146500 10.862000
Si 9.504250 9.504250 12.219750
Si 10.862000 10.862000 10.862000
Si 12.219750 12.219750 12.219750
Si 13.577500 13.577500 10.862000
Si 14.935250 14.935250 12.219750
Si 16.293000 16.293000 10.862000
Si 17.650750 17.650750 12.219750
Si 19.008500 19.008500 10.862000
Si 2.715500 0.000000 13.577500
Si 4.073250 1.357750 14.935250
Si 5.431000 2.715500 13.577500
Si 6.788750 4.073250 14.935250
Si 8.146500 5.431000 13.577500
Si 9.504250 6.788750 14.935250
Si 10.862000 8.146500 13.577500
Si 12.219750 9.504250 14.935250
Si 13.577500 10.862000 13.577500
Si 14.935250 12.219750 14.935250
Si 16.293000 13.577500 13.577500
Si 17.650750 14.935250 14.935250
Si 19.008500 16.293000 13.577500
Si 5.431000 0.000000 16.293000
Si 6.788750 1.357750 17.650750
Si 8.146500 2.715500 16.293000
Si 9.504250 4.073250 17.650750
Si 10.862000 5.431000 16.293000
Si 12.219750 6.788750 17.650750
Si 13.577500 8.146500 16.293000
Si 14.935250 9.504250 17.650750
Si 16.293000 10.862000 16.293000
Si 17.650750 12.219750 17.650750
Si 19.008500 13.577500 16.293000
Si 8.146500 0.000000 19.008500
Si 10.862000 2.715500 19.008500
Si 13.577500 5.431000 19.008500
Si 16.293000 8.146500 19.008500
Si 19.008500 10.862000 19.008500
Si 0.000000 16.293000 0.000000
Si 1.357750 17.650750 1.357750
Si 2.715500 19.008500 0.000000
Si 0.000000 13.577500 2.715500
Si 1.357750 14.935250 4.073250
Si 2.715500 16.293000 2.715500
Si 4.073250 17.650750 4.073250
Si 5.431000 19.008500 2.715500
Si 0.000000 10.862000 5.431000
Si 1.357750 12.219750 6.788750
Si 2.715500 13.577500 5.431000
Si 4.073250 14.935250 6.788750
Si 5.431000 16.293000 5.431000
Si 6.788750 17.650750 6.788750
Si 8.146500 19.008500 5.431000
Si 0.000000 8.146500 8.146500
Si 1.357750 9.504250 9.504250
Si 2.715500 10.862000 8.146500
Si 4.073250 12.219750 9.504250
Si 5.431000 13.577500 8.146500
Si 6.788750 14.935250 9.504250
Si 8.146500 16.293000 8.146500
Si 9.504250 17.650750 9.504250
Si 10.862000 19.008500 8.146500
Si 0.000000 5.431000 10.862000
Si 1.357750 6.788750 12.219750
Si 2.715500 8.146500 10.862000
Si 4.073250 9.504250 12.219750
Si 5.431000 10.862000 10.862000
Si 6.788750 12.219750 12.219750
Si 8.146500 13.577500 10.862000
Si 9.504250 14.935250 12.219750
Si 10.862000 16.293000 10.862000
Si 12.219750 17.650750 12.219750
Si 13.577500 19.008500 10.862000
Si 0.000000 2.715500 13.577500
Si 1.357750 4.073250 14.935250
Si 2.715500 5.431000 13.577500
Si 4.073250 6.788750 14.935250
Si 5.431000 8.146500 13.577500
Si 6.788750 9.504250 14.935250
Si 8.146500 10.862000 13.577500
Si 9.504250 12.219750 14.935250
Si 10.862000 13.577500 13.577500
Si 12.219750 14.935250 14.935250
Si 13.577500 16.293000 13.577500
Si 14.935250 17.650750 14.935250
Si 16.293000 19.008500 13.577500
Si 0.000000 0.000000 16.293000
Si 1.357750 1.357750 17.650750
Si 2.715500 2.715500 16.293000
Si 4.073250 4.073250 17.650750
Si 5.431000 5.431000 16.293000
Si 6.788750 6.788750 17.650750
Si 8.146500 8.146500 16.293000
Si 9.504250 9.504250 17.650750
Si 10.862000 10.862000 16.293000
Si 12.219750 12.219750 17.650750
Si 13.577500 13.577500 16.293000
Si 14.935250 14.935250 17.650750
Si 16.293000 16.293000 16.293000
Si 17.650750 17.650750 17.650750
Si 19.008500 19.008500 16.293000
Si 2.715500 0.000000 19.008500
Si 5.431000 2.715500 19.008500
Si 8.146500 5.431000 19.008500
Si 10.862000 8.146500 19.008500
Si 13.577500 10.862000 19.008500
Si 16.293000 13.577500 19.008500
Si 19.008500 16.293000 19.008500
Si 0.000000 19.008500 2.715500
Si 0.000000 16.293000 5.431000
Si 1.357750 17.650750 6.788750
Si 2.715500 19.008500 5.431000
Si 0.000000 13.577500 8.146500
Si 1.357750 14.935250 9.504250
Si 2.715500 16.293000 8.146500
Si 4.073250 17.650750 9.504250
Si 5.431000 19.008500 8.146500
Si 0.000000 10.862000 10.862000
Si 1.357750 12.219750 12.219750
Si 2.715500 13.577500 10.862000
Si 4.073250 14.935250 12.219750
Si 5.431000 16.293000 10.862000
Si 6.788750 17.650750 12.219750
Si 8.146500 19.008500 10.862000
Si 0.000000 8.146500 13.577500
Si 1.357750 9.504250 14.935250
Si 2.715500 10.862000 13.577500
Si 4.073250 12.219750 14.935250
Si 5.431000 13.577500 13.577500
Si 6.788750 14.935250 14.935250
Si 8.146500 16.293000 13.577500
Si 9.504250 17.650750 14.935250
Si 10.862000 19.008500 13.577500
Si 0.000000 5.431000 16.293000
Si 1.357750 6.788750 17.650750
Si 2.715500 8.146500 16.293000
Si 4.073250 9.504250 17.650750
Si 5.431000 10.862000 16.293000
Si 6.788750 12.219750 17.650750
Si 8.146500 13.577500 16.293000
Si 9.504250 14.935250 17.650750
Si 10.862000 16.293000 16.293000
Si 12.219750 17.650750 17.650750
Si 13.577500 19.008500 16.293000
Si 0.000000 2.715500 19.008500
Si 2.715500 5.431000 19.008500
Si 5.431000 8.146500 19.008500
Si 8.146500 10.862000 19.008500
Si 10.862000 13.577500 19.008500
Si 13.577500 16.293000 19.008500
Si 16.293000 19.008500 19.008500
Si 0.000000 19.008500 8.146500
Si 0.000000 16.293000 10.862000
Si 1.357750 17.650750 12.219750
Si 2.715500 19.008500 10.862000
Si 0.000000 13.577500 13.577500
Si 1.357750 14.935250 14.935250
Si 2.715500 16.293000 13.577500
Si 4.073250 17.650750 14.935250
Si 5.431000 19.008500 13.577500
Si 0.000000 10.862000 16.293000
Si 1.357750 12.219750 17.650750
Si 2.715500 13.577500 16.293000
Si 4.073250 14.935250 17.650750
Si 5.431000 16.293000 16.293000
Si 6.788750 17.650750 17.650750
Si 8.146500 19.008500 16.293000
Si 0.000000 8.146500 19.008500
Si 2.715500 10.862000 19.008500
Si 5.431000 13.577500 19.008500
Si 8.146500 16.293000 19.008500
Si 10.862000 19.008500 19.008500
Si 0.000000 19.008500 13.577500
Si 0.000000 16.293000 16.293000
Si 1.357750 17.650750 17.650750
Si 2.715500 19.008500 16.293000
Si 0.000000 13.577500 19.008500
Si 2.715500 16.293000 19.008500
Si 5.431000 19.008500 19.008500
Si 0.000000 19.008500 19.008500
